<?xml version="1.0" encoding="UTF-8"?>

<!-- generated on 2024-12-23 10:41:59.731125 by osmWebWizard.py v1_21_0+0000-d7b3b481c43
<configuration>
    <net-file value="C:\Users\User\2024-12-23-10-40-36\osm.net.xml.gz"/>
    <output-trip-file value="C:\Users\User\2024-12-23-10-40-36\osm.passenger.trips.xml"/>
    <route-file value="C:\Users\User\2024-12-23-10-40-36\osm.passenger.rou.xml"/>
    <prefix value="veh"/>
    <trip-attributes value="departLane=&quot;best&quot;"/>
    <fringe-start-attributes value="departSpeed=&quot;max&quot;"/>
    <vehicle-class value="passenger"/>
    <lanes value="True"/>
    <fringe-factor value="5"/>
    <allow-fringe.min-length value="1000.0"/>
    <via-edge-types value="highway.motorway,highway.motorway_link,highway.trunk_link,highway.primary_link,highway.secondary_link,highway.tertiary_link"/>
    <min-distance value="300.0"/>
    <min-distance.fringe value="10.0"/>
    <remove-loops value="True"/>
    <validate value="True"/>
    <insertion-density value="12.0"/>
</configuration>
-->

<!-- generated on 2024-12-23 10:41:34 by Eclipse SUMO duarouter Version 1.21.0
<duarouterConfiguration xmlns:xsi="http://www.w3.org/2001/XMLSchema-instance" xsi:noNamespaceSchemaLocation="http://sumo.dlr.de/xsd/duarouterConfiguration.xsd">

    <input>
        <net-file value="C:\Users\User\2024-12-23-10-40-36\osm.net.xml.gz"/>
        <route-files value="C:\Users\User\2024-12-23-10-40-36\osm.passenger.trips.xml"/>
    </input>

    <output>
        <output-file value="C:\Users\User\2024-12-23-10-40-36\osm.passenger.trips.xml.tmp"/>
        <alternatives-output value="NUL"/>
        <write-trips value="true"/>
    </output>

    <processing>
        <remove-loops value="true"/>
    </processing>

    <time>
        <begin value="0.0"/>
        <end value="3600.0"/>
    </time>

    <report>
        <no-warnings value="true"/>
        <ignore-errors value="true"/>
        <no-step-log value="true"/>
    </report>

</duarouterConfiguration>
-->

<routes xmlns:xsi="http://www.w3.org/2001/XMLSchema-instance" xsi:noNamespaceSchemaLocation="http://sumo.dlr.de/xsd/routes_file.xsd">
    <vType id="veh_passenger" vClass="passenger"/>
    <trip id="veh0" type="veh_passenger" depart="0.00" departLane="best" from="154887829#1" to="-1032031702#0"/>
    <trip id="veh1" type="veh_passenger" depart="0.39" departLane="best" from="-190279711#4" to="-159841042#0"/>
    <trip id="veh2" type="veh_passenger" depart="0.78" departLane="best" from="158640620#2" to="156324979#1"/>
    <trip id="veh3" type="veh_passenger" depart="1.17" departLane="best" from="193237141#1" to="115655796#1"/>
    <trip id="veh4" type="veh_passenger" depart="1.56" departLane="best" from="760472934#2" to="1042806631"/>
    <trip id="veh5" type="veh_passenger" depart="1.95" departLane="best" from="-159290205#4" to="-114015697#1"/>
    <trip id="veh6" type="veh_passenger" depart="2.35" departLane="best" from="-1032034246#4" to="-158308032#6"/>
    <trip id="veh7" type="veh_passenger" depart="2.74" departLane="best" from="156145767#5" to="-115509755#2"/>
    <trip id="veh8" type="veh_passenger" depart="3.13" departLane="best" from="-159370055#4" to="-1209653820"/>
    <trip id="veh9" type="veh_passenger" depart="3.52" departLane="best" from="190290667" to="1022901430#1"/>
    <trip id="veh10" type="veh_passenger" depart="3.91" departLane="best" from="190279711#14" to="158004709#1"/>
    <trip id="veh11" type="veh_passenger" depart="4.30" departLane="best" from="192072906#7" to="-156173933#3"/>
    <trip id="veh12" type="veh_passenger" depart="4.69" departLane="best" from="449440244#0" to="192072904"/>
    <trip id="veh13" type="veh_passenger" depart="5.08" departLane="best" from="-115879794#1" to="-115880827#3"/>
    <trip id="veh14" type="veh_passenger" depart="5.47" departLane="best" from="191117565#2" to="-1310395605"/>
    <trip id="veh15" type="veh_passenger" depart="5.86" departLane="best" from="190279720#2" to="158410391#0"/>
    <trip id="veh16" type="veh_passenger" depart="6.25" departLane="best" from="113752010#1" to="689665807"/>
    <trip id="veh17" type="veh_passenger" depart="6.64" departLane="best" from="237621327#10" to="115655825#0"/>
    <trip id="veh18" type="veh_passenger" depart="7.04" departLane="best" from="190793754" to="153586739"/>
    <trip id="veh19" type="veh_passenger" depart="7.43" departLane="best" from="191319422#0" to="1178023857#1"/>
    <trip id="veh20" type="veh_passenger" depart="7.82" departLane="best" from="190304147#3" to="-105578158"/>
    <trip id="veh21" type="veh_passenger" depart="8.21" departLane="best" from="162339443#0" to="-190431695#0"/>
    <trip id="veh22" type="veh_passenger" depart="8.60" departLane="best" from="113752065#0" to="-189921794#5"/>
    <trip id="veh23" type="veh_passenger" depart="8.99" departLane="best" from="-116038046#1" to="-190321649#21"/>
    <trip id="veh24" type="veh_passenger" depart="9.38" departLane="best" from="153950854#3" to="-237384504#7"/>
    <trip id="veh25" type="veh_passenger" depart="9.77" departLane="best" from="-237520358#1" to="158412872#0"/>
    <trip id="veh26" type="veh_passenger" depart="10.16" departLane="best" from="-190277013#0" to="239266482#5"/>
    <trip id="veh28" type="veh_passenger" depart="10.94" departLane="best" from="-156322600#3" to="158410387#3"/>
    <trip id="veh29" type="veh_passenger" depart="11.33" departLane="best" from="-156309776" to="237621337#4"/>
    <trip id="veh30" type="veh_passenger" depart="11.73" departLane="best" from="-773821127" to="154905341#2"/>
    <trip id="veh31" type="veh_passenger" depart="12.12" departLane="best" from="115879806" to="156419526#1"/>
    <trip id="veh32" type="veh_passenger" depart="12.51" departLane="best" from="-191093878#22" to="189931984#1"/>
    <trip id="veh33" type="veh_passenger" depart="12.90" departLane="best" from="162339448#0" to="-1042819488"/>
    <trip id="veh34" type="veh_passenger" depart="13.29" departLane="best" from="-191118885#5" to="-190279688#2"/>
    <trip id="veh35" type="veh_passenger" depart="13.68" departLane="best" from="-158410391#4" to="264303436#1"/>
    <trip id="veh36" type="veh_passenger" depart="14.07" departLane="best" from="192073510#0" to="-191118904#4"/>
    <trip id="veh37" type="veh_passenger" depart="14.46" departLane="best" from="156167688#6" to="-264303435#4"/>
    <trip id="veh38" type="veh_passenger" depart="14.85" departLane="best" from="-237521337#0" to="103185300#3"/>
    <trip id="veh39" type="veh_passenger" depart="15.24" departLane="best" from="-190276977#9" to="-189931952#9"/>
    <trip id="veh40" type="veh_passenger" depart="15.63" departLane="best" from="115880823#5" to="190276990#0"/>
    <trip id="veh41" type="veh_passenger" depart="16.02" departLane="best" from="-1311473764" to="207405240#2"/>
    <trip id="veh42" type="veh_passenger" depart="16.42" departLane="best" from="-26774681#1" to="-159802681#2"/>
    <trip id="veh43" type="veh_passenger" depart="16.81" departLane="best" from="995148572#1" to="1096320030#0"/>
    <trip id="veh44" type="veh_passenger" depart="17.20" departLane="best" from="115771905#1" to="105605175#2"/>
    <trip id="veh45" type="veh_passenger" depart="17.59" departLane="best" from="-116757846#2" to="153813979#3"/>
    <trip id="veh46" type="veh_passenger" depart="17.98" departLane="best" from="189932012#1" to="-773831763#1"/>
    <trip id="veh47" type="veh_passenger" depart="18.37" departLane="best" from="1117705096" to="237869492#6"/>
    <trip id="veh48" type="veh_passenger" depart="18.76" departLane="best" from="995148559#1" to="1134453286"/>
    <trip id="veh49" type="veh_passenger" depart="19.15" departLane="best" from="689097891#3" to="-191359752#1"/>
    <trip id="veh50" type="veh_passenger" depart="19.54" departLane="best" from="1057561769" to="158308044#1"/>
    <trip id="veh51" type="veh_passenger" depart="19.93" departLane="best" from="156340799#2" to="113752054#25"/>
    <trip id="veh52" type="veh_passenger" depart="20.32" departLane="best" from="-190277011#0" to="154905343#7"/>
    <trip id="veh53" type="veh_passenger" depart="20.71" departLane="best" from="-1173665891" to="102023561#11"/>
    <trip id="veh54" type="veh_passenger" depart="21.11" departLane="best" from="-1023266049" to="350552537#0"/>
    <trip id="veh55" type="veh_passenger" depart="21.50" departLane="best" from="192073506" to="-190276993"/>
    <trip id="veh56" type="veh_passenger" depart="21.89" departLane="best" from="-105605198#4" to="-156421311#5"/>
    <trip id="veh57" type="veh_passenger" depart="22.28" departLane="best" from="237521320#15" to="192072911#2"/>
    <trip id="veh58" type="veh_passenger" depart="22.67" departLane="best" from="190876871" to="260285725#1"/>
    <trip id="veh59" type="veh_passenger" depart="23.06" departLane="best" from="1342413760" to="156168894#0"/>
    <trip id="veh60" type="veh_passenger" depart="23.45" departLane="best" from="-189921778#3" to="-113752057#5"/>
    <trip id="veh61" type="veh_passenger" depart="23.84" departLane="best" from="189931952#4" to="113613559#4"/>
    <trip id="veh62" type="veh_passenger" depart="24.23" departLane="best" from="-1019044734" to="-191138578"/>
    <trip id="veh63" type="veh_passenger" depart="24.62" departLane="best" from="-1023266064" to="238477574#9"/>
    <trip id="veh64" type="veh_passenger" depart="25.01" departLane="best" from="192074877#2" to="191009033#1"/>
    <trip id="veh65" type="veh_passenger" depart="25.40" departLane="best" from="-191064582#8" to="1065795891"/>
    <trip id="veh66" type="veh_passenger" depart="25.80" departLane="best" from="-192074453#2" to="281938100"/>
    <trip id="veh67" type="veh_passenger" depart="26.19" departLane="best" from="-115654046#18" to="105350856#0"/>
    <trip id="veh68" type="veh_passenger" depart="26.58" departLane="best" from="-113384727#3" to="189921778#2"/>
    <trip id="veh69" type="veh_passenger" depart="26.97" departLane="best" from="189921791#5" to="1237979311"/>
    <trip id="veh70" type="veh_passenger" depart="27.36" departLane="best" from="1040193413#0" to="-115655777#2"/>
    <trip id="veh71" type="veh_passenger" depart="27.75" departLane="best" from="-190276990#0" to="192073501#4"/>
    <trip id="veh72" type="veh_passenger" depart="28.14" departLane="best" from="-772143657" to="-158496684"/>
    <trip id="veh73" type="veh_passenger" depart="28.53" departLane="best" from="113752055" to="158410391#2"/>
    <trip id="veh74" type="veh_passenger" depart="28.92" departLane="best" from="-158308034" to="-191117554"/>
    <trip id="veh75" type="veh_passenger" depart="29.31" departLane="best" from="812391519#4" to="156154643"/>
    <trip id="veh76" type="veh_passenger" depart="29.70" departLane="best" from="-102023561#3" to="1126843682#0"/>
    <trip id="veh77" type="veh_passenger" depart="30.09" departLane="best" from="-1193794375" to="-160554108"/>
    <trip id="veh78" type="veh_passenger" depart="30.49" departLane="best" from="-191928003" to="120530545#5"/>
    <trip id="veh79" type="veh_passenger" depart="30.88" departLane="best" from="162339448#32" to="-159802684#0"/>
    <trip id="veh80" type="veh_passenger" depart="31.27" departLane="best" departSpeed="max" from="-113733842#1" to="153948920#4"/>
    <trip id="veh81" type="veh_passenger" depart="31.66" departLane="best" from="-162339447#1" to="237384504#10"/>
    <trip id="veh82" type="veh_passenger" depart="32.05" departLane="best" from="191138582#1" to="113748570#8"/>
    <trip id="veh83" type="veh_passenger" depart="32.44" departLane="best" from="-189923103" to="156311706#4"/>
    <trip id="veh84" type="veh_passenger" depart="32.83" departLane="best" from="-158640620#3" to="-1309303014"/>
    <trip id="veh86" type="veh_passenger" depart="33.61" departLane="best" from="-113752062#1" to="189931997#5"/>
    <trip id="veh87" type="veh_passenger" depart="34.00" departLane="best" from="190290630#0" to="-158028069#1"/>
    <trip id="veh88" type="veh_passenger" depart="34.39" departLane="best" from="-115880813#1" to="1019044733"/>
    <trip id="veh89" type="veh_passenger" depart="34.79" departLane="best" from="772394416" to="1032449334#2"/>
    <trip id="veh90" type="veh_passenger" depart="35.18" departLane="best" from="158320876#2" to="-156322586#3"/>
    <trip id="veh91" type="veh_passenger" depart="35.57" departLane="best" from="-726158711#1" to="116038036#2"/>
    <trip id="veh92" type="veh_passenger" depart="35.96" departLane="best" from="-473839161#0" to="-192072919#4"/>
    <trip id="veh93" type="veh_passenger" depart="36.35" departLane="best" from="191319417#0" to="-189931965#9"/>
    <trip id="veh94" type="veh_passenger" depart="36.74" departLane="best" from="-158004729" to="1023266028#0"/>
    <trip id="veh95" type="veh_passenger" depart="37.13" departLane="best" from="760472934#2" to="-190321649#36"/>
    <trip id="veh96" type="veh_passenger" depart="37.52" departLane="best" from="-189931962#1" to="237869492#4"/>
    <trip id="veh97" type="veh_passenger" depart="37.91" departLane="best" from="-1022901442#1" to="191363018#1"/>
    <trip id="veh98" type="veh_passenger" depart="38.30" departLane="best" from="115655762#1" to="-105738760"/>
    <trip id="veh99" type="veh_passenger" depart="38.69" departLane="best" from="-995152876" to="191063369"/>
    <trip id="veh100" type="veh_passenger" depart="39.08" departLane="best" from="562931989#0" to="238242014#2"/>
    <trip id="veh101" type="veh_passenger" depart="39.48" departLane="best" from="191118891#10" to="156322585#1"/>
    <trip id="veh102" type="veh_passenger" depart="39.87" departLane="best" from="-1044138551#16" to="158640644"/>
    <trip id="veh103" type="veh_passenger" depart="40.26" departLane="best" from="320975262#1" to="1078379818"/>
    <trip id="veh104" type="veh_passenger" depart="40.65" departLane="best" from="-237621327#4" to="731253231#1"/>
    <trip id="veh105" type="veh_passenger" depart="41.04" departLane="best" from="-190276990#3" to="189931995#0"/>
    <trip id="veh106" type="veh_passenger" depart="41.43" departLane="best" from="-1023266074" to="-774655043"/>
    <trip id="veh107" type="veh_passenger" depart="41.82" departLane="best" from="449440244#1" to="986447752"/>
    <trip id="veh108" type="veh_passenger" depart="42.21" departLane="best" from="115773486" to="158199996#0"/>
    <trip id="veh109" type="veh_passenger" depart="42.60" departLane="best" from="-156168894#3" to="-190876880"/>
    <trip id="veh111" type="veh_passenger" depart="43.38" departLane="best" from="-113752064#6" to="159802682#0"/>
    <trip id="veh112" type="veh_passenger" depart="43.77" departLane="best" from="1061700731#1" to="1195984058"/>
    <trip id="veh113" type="veh_passenger" depart="44.17" departLane="best" from="105738785#0" to="191129907#0"/>
    <trip id="veh114" type="veh_passenger" depart="44.56" departLane="best" from="-156173937#1" to="47690206#1"/>
    <trip id="veh115" type="veh_passenger" depart="44.95" departLane="best" from="113752065#4" to="157920901#6"/>
    <trip id="veh116" type="veh_passenger" depart="45.34" departLane="best" from="-1234206824" to="156322598#0"/>
    <trip id="veh117" type="veh_passenger" depart="45.73" departLane="best" from="189921787#12" to="-1196955474"/>
    <trip id="veh118" type="veh_passenger" depart="46.12" departLane="best" from="193237137#0" to="-189931952#3"/>
    <trip id="veh119" type="veh_passenger" depart="46.51" departLane="best" from="1227098018#0" to="153690575"/>
    <trip id="veh120" type="veh_passenger" depart="46.90" departLane="best" from="-719567497#2" to="1192581695"/>
    <trip id="veh121" type="veh_passenger" depart="47.29" departLane="best" from="190304147#5" to="238768553#7"/>
    <trip id="veh122" type="veh_passenger" depart="47.68" departLane="best" from="158308548#7" to="158199182#4"/>
    <trip id="veh123" type="veh_passenger" depart="48.07" departLane="best" from="-189924438#0" to="-264303435#6"/>
    <trip id="veh124" type="veh_passenger" depart="48.46" departLane="best" from="156311706#5" to="-191009033#7"/>
    <trip id="veh125" type="veh_passenger" depart="48.86" departLane="best" from="-191118891#5" to="159841042#2"/>
    <trip id="veh126" type="veh_passenger" depart="49.25" departLane="best" from="113751991#4" to="103185296"/>
    <trip id="veh127" type="veh_passenger" depart="49.64" departLane="best" from="995152869#1" to="995148559#0"/>
    <trip id="veh128" type="veh_passenger" depart="50.03" departLane="best" from="113751996" to="-158640634"/>
    <trip id="veh129" type="veh_passenger" depart="50.42" departLane="best" from="-190276990#3" to="238609675#4"/>
    <trip id="veh130" type="veh_passenger" depart="50.81" departLane="best" from="-192076562#2" to="192446085#1"/>
    <trip id="veh131" type="veh_passenger" depart="51.20" departLane="best" from="-237429751#0" to="-156174415"/>
    <trip id="veh132" type="veh_passenger" depart="51.59" departLane="best" from="191009024#0" to="158014390#1"/>
    <trip id="veh133" type="veh_passenger" depart="51.98" departLane="best" from="150612579#2-AddedOffRampEdge" to="765036526#2"/>
    <trip id="veh134" type="veh_passenger" depart="52.37" departLane="best" from="156167064#0" to="1022901442#1"/>
    <trip id="veh135" type="veh_passenger" depart="52.76" departLane="best" from="190362106#3" to="-191009033#1"/>
    <trip id="veh136" type="veh_passenger" depart="53.15" departLane="best" from="156174201#6" to="260285723#4"/>
    <trip id="veh137" type="veh_passenger" depart="53.55" departLane="best" from="-1309523391" to="-1180180699"/>
    <trip id="veh138" type="veh_passenger" depart="53.94" departLane="best" from="116234195#0" to="115771914#0"/>
    <trip id="veh139" type="veh_passenger" depart="54.33" departLane="best" from="-190279703#5" to="1311193534#1"/>
    <trip id="veh140" type="veh_passenger" depart="54.72" departLane="best" from="158184978#0" to="-158320862"/>
    <trip id="veh141" type="veh_passenger" depart="55.11" departLane="best" from="153948923#1" to="-190277003#2"/>
    <trip id="veh142" type="veh_passenger" depart="55.50" departLane="best" from="-105350837#2" to="-237384504#1"/>
    <trip id="veh143" type="veh_passenger" depart="55.89" departLane="best" from="191115114#1" to="-115879815#1"/>
    <trip id="veh144" type="veh_passenger" depart="56.28" departLane="best" from="772394416" to="-190292792#7"/>
    <trip id="veh145" type="veh_passenger" depart="56.67" departLane="best" from="-102023561#7" to="-189931926#1"/>
    <trip id="veh146" type="veh_passenger" depart="57.06" departLane="best" from="154887805#1" to="-190276976#1"/>
    <trip id="veh147" type="veh_passenger" depart="57.45" departLane="best" from="158712053#4" to="115655815#0"/>
    <trip id="veh148" type="veh_passenger" depart="57.84" departLane="best" from="-803561828#3" to="1023126731"/>
    <trip id="veh149" type="veh_passenger" depart="58.24" departLane="best" from="113752038#0" to="193237121#1"/>
    <trip id="veh151" type="veh_passenger" depart="59.02" departLane="best" from="191009033#13" to="1180646716#0"/>
    <trip id="veh152" type="veh_passenger" depart="59.41" departLane="best" from="-156153394#1" to="1236886428"/>
    <trip id="veh153" type="veh_passenger" depart="59.80" departLane="best" from="-191079439" to="207405246#5"/>
    <trip id="veh154" type="veh_passenger" depart="60.19" departLane="best" from="-190276990#3" to="-191359704#11"/>
    <trip id="veh155" type="veh_passenger" depart="60.58" departLane="best" from="207360356#1" to="-158412884#0"/>
    <trip id="veh156" type="veh_passenger" depart="60.97" departLane="best" from="-189931954#6" to="116065387#6"/>
    <trip id="veh157" type="veh_passenger" depart="61.36" departLane="best" from="-189931962#5" to="193237124#10"/>
    <trip id="veh158" type="veh_passenger" depart="61.75" departLane="best" from="52151971#4" to="153747155#0"/>
    <trip id="veh159" type="veh_passenger" depart="62.14" departLane="best" from="-156168894#0" to="238609512#7"/>
    <trip id="veh160" type="veh_passenger" depart="62.54" departLane="best" from="-191546924" to="1180169270"/>
    <trip id="veh161" type="veh_passenger" depart="62.93" departLane="best" from="-190292790#0" to="193237114#0"/>
    <trip id="veh162" type="veh_passenger" depart="63.32" departLane="best" from="473824685" to="158645675#8"/>
    <trip id="veh163" type="veh_passenger" depart="63.71" departLane="best" from="-191363023#8" to="238609519#0"/>
    <trip id="veh165" type="veh_passenger" depart="64.49" departLane="best" from="190292790#0" to="-190277040"/>
    <trip id="veh166" type="veh_passenger" depart="64.88" departLane="best" from="189932001#1" to="116757846#1"/>
    <trip id="veh167" type="veh_passenger" depart="65.27" departLane="best" from="192072905#2" to="191231184#3"/>
    <trip id="veh168" type="veh_passenger" depart="65.66" departLane="best" from="159802684#1" to="-190362379#0"/>
    <trip id="veh169" type="veh_passenger" depart="66.05" departLane="best" departSpeed="max" from="1029381531#0" to="-191079435#0"/>
    <trip id="veh170" type="veh_passenger" depart="66.44" departLane="best" from="190276977#1" to="-162339448#23"/>
    <trip id="veh171" type="veh_passenger" depart="66.83" departLane="best" from="-1023290435" to="-158140391#2"/>
    <trip id="veh172" type="veh_passenger" depart="67.23" departLane="best" from="191229527#2" to="-191558825#1"/>
    <trip id="veh173" type="veh_passenger" depart="67.62" departLane="best" from="52151680#11" to="-190321649#7"/>
    <trip id="veh174" type="veh_passenger" depart="68.01" departLane="best" from="154905339#0" to="-473839161#1"/>
    <trip id="veh175" type="veh_passenger" depart="68.40" departLane="best" from="719270544#2" to="-113752038#0"/>
    <trip id="veh176" type="veh_passenger" depart="68.79" departLane="best" from="1032036238#0" to="-1180180698#2"/>
    <trip id="veh177" type="veh_passenger" depart="69.18" departLane="best" from="562984694#8" to="-156421311#4"/>
    <trip id="veh178" type="veh_passenger" depart="69.57" departLane="best" from="47693490#2" to="-190277020#0"/>
    <trip id="veh179" type="veh_passenger" depart="69.96" departLane="best" from="116237637#1" to="-102023536#11"/>
    <trip id="veh180" type="veh_passenger" depart="70.35" departLane="best" from="158320871#0" to="-191118891#5"/>
    <trip id="veh181" type="veh_passenger" depart="70.74" departLane="best" from="-1311473765" to="1111238993"/>
    <trip id="veh182" type="veh_passenger" depart="71.13" departLane="best" from="237869495#0" to="1175003355#1"/>
    <trip id="veh183" type="veh_passenger" depart="71.52" departLane="best" from="-189931985#6" to="158140394#1"/>
    <trip id="veh184" type="veh_passenger" depart="71.92" departLane="best" from="-102023536#13" to="238242012#4"/>
    <trip id="veh185" type="veh_passenger" depart="72.31" departLane="best" from="113752054#25" to="-158308033"/>
    <trip id="veh186" type="veh_passenger" depart="72.70" departLane="best" from="158712059#0" to="156311715#2"/>
    <trip id="veh187" type="veh_passenger" depart="73.09" departLane="best" from="194981063#2" to="-113733839"/>
    <trip id="veh188" type="veh_passenger" depart="73.48" departLane="best" from="156174413" to="-191545879#3"/>
    <trip id="veh189" type="veh_passenger" depart="73.87" departLane="best" from="-191115904#8" to="-191118911#5"/>
    <trip id="veh190" type="veh_passenger" depart="74.26" departLane="best" from="158199197#4" to="-191009034#1"/>
    <trip id="veh191" type="veh_passenger" depart="74.65" departLane="best" from="-191079447#2" to="-693365345#1"/>
    <trip id="veh192" type="veh_passenger" depart="75.04" departLane="best" from="-449440244#0" to="-190875513"/>
    <trip id="veh193" type="veh_passenger" depart="75.43" departLane="best" from="1227098787#1" to="-772394416"/>
    <trip id="veh194" type="veh_passenger" depart="75.82" departLane="best" from="-240754317#6" to="-156324983#3"/>
    <trip id="veh196" type="veh_passenger" depart="76.61" departLane="best" from="-191009013" to="115654046#10"/>
    <trip id="veh197" type="veh_passenger" depart="77.00" departLane="best" from="-1019044728" to="-190383498#1"/>
    <trip id="veh198" type="veh_passenger" depart="77.39" departLane="best" from="-986466423" to="1180365513"/>
    <trip id="veh199" type="veh_passenger" depart="77.78" departLane="best" from="156167388#1" to="1032034247#5"/>
    <trip id="veh200" type="veh_passenger" depart="78.17" departLane="best" from="-1022901435" to="158640644"/>
    <trip id="veh201" type="veh_passenger" depart="78.56" departLane="best" departSpeed="max" from="1039055571" to="209297293"/>
    <trip id="veh202" type="veh_passenger" depart="78.95" departLane="best" from="190277004#1" to="156324972"/>
    <trip id="veh203" type="veh_passenger" depart="79.34" departLane="best" from="115652858" to="1126475651#1"/>
    <trip id="veh204" type="veh_passenger" depart="79.73" departLane="best" from="153948912#9" to="191917804#1"/>
    <trip id="veh205" type="veh_passenger" depart="80.12" departLane="best" from="190362119#1" to="159841038#0"/>
    <trip id="veh206" type="veh_passenger" depart="80.51" departLane="best" from="156311714#1" to="-160554108"/>
    <trip id="veh207" type="veh_passenger" depart="80.90" departLane="best" from="-158140415#5" to="473824685"/>
    <trip id="veh208" type="veh_passenger" depart="81.30" departLane="best" from="189931936#3" to="1042811118"/>
    <trip id="veh209" type="veh_passenger" depart="81.69" departLane="best" from="191118904#11" to="-113752023#2"/>
    <trip id="veh210" type="veh_passenger" depart="82.08" departLane="best" from="718369746#8" to="153948912#10"/>
    <trip id="veh211" type="veh_passenger" depart="82.47" departLane="best" from="-158136143" to="157973067#3"/>
    <trip id="veh212" type="veh_passenger" depart="82.86" departLane="best" from="105578152#1" to="189931942#2"/>
    <trip id="veh213" type="veh_passenger" depart="83.25" departLane="best" from="156168874#1" to="1022901421"/>
    <trip id="veh214" type="veh_passenger" depart="83.64" departLane="best" from="159803038#0" to="189931923#0"/>
    <trip id="veh215" type="veh_passenger" depart="84.03" departLane="best" from="-116232201#4" to="803588776#2"/>
    <trip id="veh216" type="veh_passenger" depart="84.42" departLane="best" from="-156419516#1" to="449440244#1"/>
    <trip id="veh217" type="veh_passenger" depart="84.81" departLane="best" from="1123936950#4" to="-105738749#1"/>
    <trip id="veh218" type="veh_passenger" depart="85.20" departLane="best" from="-189931954#2" to="-191123079"/>
    <trip id="veh219" type="veh_passenger" depart="85.59" departLane="best" from="-1023266101#3" to="-190279690"/>
    <trip id="veh220" type="veh_passenger" depart="85.99" departLane="best" from="156308517#2" to="-765133994"/>
    <trip id="veh221" type="veh_passenger" depart="86.38" departLane="best" from="1234807725" to="320975258#0"/>
    <trip id="veh222" type="veh_passenger" depart="86.77" departLane="best" from="-193237138#2" to="153554002#0"/>
    <trip id="veh223" type="veh_passenger" depart="87.16" departLane="best" from="158199194#0" to="1065785662#1"/>
    <trip id="veh224" type="veh_passenger" depart="87.55" departLane="best" from="190875513" to="115654046#1"/>
    <trip id="veh225" type="veh_passenger" depart="87.94" departLane="best" from="204165728#3" to="159290202#1"/>
    <trip id="veh226" type="veh_passenger" depart="88.33" departLane="best" from="1039055571-AddedOffRampEdge" to="-190272863#0"/>
    <trip id="veh227" type="veh_passenger" depart="88.72" departLane="best" from="189931950#13" to="154887839#4"/>
    <trip id="veh228" type="veh_passenger" depart="89.11" departLane="best" from="189921791#5" to="1127247752"/>
    <trip id="veh229" type="veh_passenger" depart="89.50" departLane="best" from="153802895#2" to="-190290650"/>
    <trip id="veh230" type="veh_passenger" depart="89.89" departLane="best" from="113752057#19" to="-190383379#0"/>
    <trip id="veh231" type="veh_passenger" depart="90.28" departLane="best" from="-190279698#3" to="-191129891#6"/>
    <trip id="veh232" type="veh_passenger" depart="90.68" departLane="best" from="113752057#21" to="153554001"/>
    <trip id="veh233" type="veh_passenger" depart="91.07" departLane="best" from="-162339459#3" to="157920901#4"/>
    <trip id="veh235" type="veh_passenger" depart="91.85" departLane="best" from="-689588144" to="1148137536"/>
    <trip id="veh236" type="veh_passenger" depart="92.24" departLane="best" from="-718805191#0" to="-158410384#7"/>
    <trip id="veh237" type="veh_passenger" depart="92.63" departLane="best" from="-721524805#2" to="237376289#2"/>
    <trip id="veh238" type="veh_passenger" depart="93.02" departLane="best" from="1180396299" to="157970839#1"/>
    <trip id="veh239" type="veh_passenger" depart="93.41" departLane="best" from="191130614#7" to="189923093#1"/>
    <trip id="veh240" type="veh_passenger" depart="93.80" departLane="best" from="-237621330#6" to="1022901425"/>
    <trip id="veh241" type="veh_passenger" depart="94.19" departLane="best" from="193237114#4" to="160554113#1"/>
    <trip id="veh242" type="veh_passenger" depart="94.58" departLane="best" from="-191129877#26" to="342881433#2"/>
    <trip id="veh243" type="veh_passenger" depart="94.98" departLane="best" from="-719567496" to="159802680#0"/>
    <trip id="veh244" type="veh_passenger" depart="95.37" departLane="best" from="115509706#0" to="1310002578"/>
    <trip id="veh245" type="veh_passenger" depart="95.76" departLane="best" from="-159616708#3" to="-159802681#3"/>
    <trip id="veh247" type="veh_passenger" depart="96.54" departLane="best" from="-191559107#2" to="156419067#0"/>
    <trip id="veh248" type="veh_passenger" depart="96.93" departLane="best" from="47693484#1" to="-156311720#3"/>
    <trip id="veh249" type="veh_passenger" depart="97.32" departLane="best" from="1032032666#3" to="1236886430"/>
    <trip id="veh250" type="veh_passenger" depart="97.71" departLane="best" departSpeed="max" from="153690581" to="-1040193412#0"/>