<?xml version="1.0" encoding="UTF-8"?>

<!-- generated on 2024-12-23 10:41:02.584895 by osmWebWizard.py v1_21_0+0000-d7b3b481c43
<configuration>
    <net-file value="C:\Users\User\2024-12-23-10-40-36\osm.net.xml.gz"/>
    <ptlines-file value="C:\Users\User\2024-12-23-10-40-36\osm_ptlines.xml"/>
    <ptstops-file value="C:\Users\User\2024-12-23-10-40-36\osm_stops.add.xml"/>
    <output-file value="C:\Users\User\2024-12-23-10-40-36\osm_pt.rou.xml"/>
    <stopinfos-file value="C:\Users\User\2024-12-23-10-40-36\stopinfos.xml"/>
    <routes-file value="C:\Users\User\2024-12-23-10-40-36\vehroutes.xml"/>
    <trips-file value="C:\Users\User\2024-12-23-10-40-36\trips.trips.xml"/>
    <min-stops value="0"/>
    <extend-to-fringe value="True"/>
    <random-begin value="True"/>
    <seed value="42"/>
    <ignore-errors value="True"/>
    <vtype-prefix value="pt_"/>
    <verbose value="True"/>
</configuration>
-->

<routes xmlns:xsi="http://www.w3.org/2001/XMLSchema-instance" xsi:noNamespaceSchemaLocation="http://sumo.dlr.de/xsd/routes_file.xsd">
    <vType id="pt_bus" vClass="bus"/>
    <vType id="pt_tram" vClass="tram"/>
    <vType id="pt_train" vClass="rail"/>
    <vType id="pt_subway" vClass="subway"/>
    <vType id="pt_light_rail" vClass="rail_urban"/>
    <vType id="pt_monorail" vClass="rail_urban"/>
    <vType id="pt_trolleybus" vClass="bus"/>
    <vType id="pt_minibus" vClass="bus"/>
    <vType id="pt_share_taxi" vClass="taxi"/>
    <vType id="pt_aerialway" vClass="cable_car" length="2.5" width="2" personCapacity="4"/>
    <vType id="pt_ferry" vClass="ship"/>
    <route id="pt_train_Shabd_Bhedi_Superfast_Express:_=_Kolkata:0" edges="382682989#0" >
        <stop busStop="7630431377" duration="20" until="107.0"/> <!-- Kolkata Chitpur -->
    </route>
    <route id="pt_train_Shabd_Bhedi_Superfast_Express:_=_Ghazipur:0" edges="382682989#0 382682989#1 816991244 116235730 816906495#1 824684256#0 824684256#1 382679583#0 382679583#1 382679583#2" >
        <stop busStop="7630431377" duration="20" until="77.0"/> <!-- Kolkata Chitpur -->
    </route>
    <route id="pt_tram_17:0" edges="205080226#7" >
        <stop busStop="2207611901" duration="20" until="36.0"/> <!-- Bidhan Nagar -->
    </route>
    <route id="pt_tram_20/17:0" edges="205080226#7" >
        <stop busStop="2207611901" duration="20" until="36.0"/> <!-- Bidhan Nagar -->
    </route>
    <route id="pt_train_13114:0" edges="224838572" >
        <stop busStop="1074604498" duration="20" until="94.0"/> <!-- Kolkata Chitpur -->
    </route>
    <route id="pt_subway_1:0" color="blue" edges="610018755" >
        <stop busStop="11703491151" duration="20" until="92.0"/> <!-- Belgachia -->
    </route>
    <route id="pt_subway_2:0" color="green" edges="610018750#0 610018750#1" >
        <stop busStop="7976140070" duration="20" until="43.0"/> <!-- Salt Lake Stadium -->
        <stop busStop="7976140068" duration="20" until="109.0"/> <!-- Bengal Chemical -->
        <stop busStop="7976140064" duration="20" until="192.0"/> <!-- City Centre -->
        <stop busStop="7976140061" duration="20" until="266.0"/> <!-- Central Park -->
        <stop busStop="5777572361" duration="20" until="336.0"/> <!-- Karunamoyee -->
        <stop busStop="5777572424" duration="20" until="422.0"/> <!-- Salt Lake Sector V -->
    </route>
    <route id="pt_subway_2:1" color="green" edges="535333527#0 535333527#1 535333527#2 535333527#3 535333527#4" >
        <stop busStop="7628479190" duration="20" until="31.0"/> <!-- Salt Lake Sector V -->
        <stop busStop="5189265479" duration="20" until="117.0"/> <!-- Karunamoyee -->
        <stop busStop="7976140062" duration="20" until="186.0"/> <!-- Central Park -->
        <stop busStop="7976140065" duration="20" until="259.0"/> <!-- City Centre -->
        <stop busStop="7976140067" duration="20" until="344.0"/> <!-- Bengal Chemical -->
        <stop busStop="7976140071" duration="20" until="412.0"/> <!-- Salt Lake Stadium -->
    </route>
    <route id="pt_subway_1:1" color="blue" edges="1124379129#0" >
        <stop busStop="11703491150" duration="20" until="67.0"/> <!-- Belgachia -->
    </route>
    <flow id="pt_train_Shabd_Bhedi_Superfast_Express:_=_Kolkata:0" type="pt_train" route="pt_train_Shabd_Bhedi_Superfast_Express:_=_Kolkata:0" begin="52.0" end="3652.0" period="600" line="Shabd_Bhedi_Superfast_Express:_=_Kolkata:0" >
        <param key="name" value="Shabd Bhedi Superfast Express: =&gt; Kolkata"/>
        <param key="completeness" value="0.11"/>
    </flow>
    <flow id="pt_train_Shabd_Bhedi_Superfast_Express:_=_Ghazipur:0" type="pt_train" route="pt_train_Shabd_Bhedi_Superfast_Express:_=_Ghazipur:0" begin="15.0" end="3615.0" period="600" line="Shabd_Bhedi_Superfast_Express:_=_Ghazipur:0" >
        <param key="name" value="Shabd Bhedi Superfast Express: =&gt; Ghazipur"/>
        <param key="completeness" value="0.10"/>
    </flow>
    <flow id="pt_tram_17:0" type="pt_tram" route="pt_tram_17:0" begin="253.0" end="3853.0" period="600" line="17:0" >
        <param key="completeness" value="0.50"/>
    </flow>
    <flow id="pt_tram_20/17:0" type="pt_tram" route="pt_tram_20/17:0" begin="383.0" end="3983.0" period="600" line="20/17:0" >
        <param key="completeness" value="1.00"/>
    </flow>
    <flow id="pt_train_13114:0" type="pt_train" route="pt_train_13114:0" begin="406.0" end="4006.0" period="600" line="13114:0" >
        <param key="name" value="Hazarduari Express: Krishnanagar =&gt; Lalgola"/>
        <param key="completeness" value="0.08"/>
    </flow>
    <flow id="pt_subway_1:0" type="pt_subway" route="pt_subway_1:0" begin="441.0" end="4041.0" period="600" line="1:0" >
        <param key="name" value="Kolkata Metro Line 1 (Kavi Subhash → Dakshineshwar)"/>
        <param key="completeness" value="0.04"/>
    </flow>
    <flow id="pt_subway_2:0" type="pt_subway" route="pt_subway_2:0" begin="133.0" end="3733.0" period="600" line="2:0" >
        <param key="name" value="Kolkata Metro Line 2 (Sealdah → Salt Lake Sector V)"/>
        <param key="completeness" value="0.75"/>
    </flow>
    <flow id="pt_subway_2:1" type="pt_subway" route="pt_subway_2:1" begin="165.0" end="3765.0" period="600" line="2:1" >
        <param key="name" value="Kolkata Metro Line 2 (Salt Lake Sector V → Sealdah)"/>
        <param key="completeness" value="0.75"/>
    </flow>
    <flow id="pt_subway_1:1" type="pt_subway" route="pt_subway_1:1" begin="535.0" end="4135.0" period="600" line="1:1" >
        <param key="name" value="Kolkata Metro Line 1 (Dakshineshwar → Kavi Subhash)"/>
        <param key="completeness" value="0.04"/>
    </flow>
</routes>
